src/applications/data_sets/dsa/case_ACTIVSg2000_1.raw
0,  100.000		 / PSS/E-33.2    SUN, MAR 10 2013  17:41 


  1001,'1001        ',115.0000,1,1,1,1,   1.03137, -28.66489,1.10000,0.90000,1.10000,0.90000
  1002,'1002        ',115.0000,1,1,1,1,   1.07323, -23.50041,1.10000,0.90000,1.10000,0.90000
  1003,'1003        ',115.0000,1,1,1,1,   1.06769, -19.83273,1.10000,0.90000,1.10000,0.90000
  1004,'1004        ',230.0000,2,1,1,1,   1.06831, -21.24582,1.10000,0.90000,1.10000,0.90000
  1005,'1005        ',115.0000,1,1,1,1,   1.06233, -20.50085,1.10000,0.90000,1.10000,0.90000
  1006,'1006        ',13.8000,2,1,1,1,   1.05631, -18.55316,1.10000,0.90000,1.10000,0.90000
  1007,'1007        ',115.0000,1,1,1,1,   1.08068, -24.11431,1.10000,0.90000,1.10000,0.90000
  1008,'1008        ',115.0000,1,1,1,1,   1.05913, -13.31681,1.10000,0.90000,1.10000,0.90000
  1009,'1009        ',13.8000,2,1,1,1,   1.04960, -10.26738,1.10000,0.90000,1.10000,0.90000
  1010,'1010        ',115.0000,1,1,1,1,   1.07964, -22.24548,1.10000,0.90000,1.10000,0.90000
  1011,'1011        ',22.0000,2,1,1,1,   1.07989, -20.65008,1.10000,0.90000,1.10000,0.90000
  1012,'1012        ',115.0000,1,1,1,1,   1.08268, -27.54071,1.10000,0.90000,1.10000,0.90000
  1013,'1013        ',115.0000,1,1,1,1,   1.05628, -21.92282,1.10000,0.90000,1.10000,0.90000
  1014,'1014        ',115.0000,1,1,1,1,   1.06031, -18.06581,1.10000,0.90000,1.10000,0.90000
  1015,'1015        ',115.0000,1,1,1,1,   1.08261, -23.68289,1.10000,0.90000,1.10000,0.90000
  1016,'1016        ',115.0000,1,1,1,1,   1.07037, -20.11109,1.10000,0.90000,1.10000,0.90000
  1017,'1017        ',115.0000,1,1,1,1,   1.03779, -27.28619,1.10000,0.90000,1.10000,0.90000
  1018,'1018        ',115.0000,1,1,1,1,   1.03765, -26.06991,1.10000,0.90000,1.10000,0.90000
  1019,'1019        ',115.0000,1,1,1,1,   1.05014, -28.14580,1.10000,0.90000,1.10000,0.90000
  1020,'1020        ',115.0000,1,1,1,1,   1.06756, -19.29265,1.10000,0.90000,1.10000,0.90000
  1021,'1021        ',13.8000,2,1,1,1,   1.04479, -13.22848,1.10000,0.90000,1.10000,0.90000
  1022,'1022        ',115.0000,1,1,1,1,   1.07056, -18.99590,1.10000,0.90000,1.10000,0.90000
  1023,'1023        ',13.8000,2,1,1,1,   1.08572, -11.20888,1.10000,0.90000,1.10000,0.90000
  1024,'1024        ',115.0000,1,1,1,1,   1.03341, -25.12939,1.10000,0.90000,1.10000,0.90000
  1025,'1025        ',115.0000,1,1,1,1,   1.06612, -18.45712,1.10000,0.90000,1.10000,0.90000
  1026,'1026        ',13.8000,2,1,1,1,   1.04638,  -9.77630,1.10000,0.90000,1.10000,0.90000
  1027,'1027        ',115.0000,1,1,1,1,   1.06952, -30.52339,1.10000,0.90000,1.10000,0.90000
  1028,'1028        ',115.0000,1,1,1,1,   1.06526, -20.19073,1.10000,0.90000,1.10000,0.90000
  1029,'1029        ',115.0000,1,1,1,1,   1.08637, -29.83633,1.10000,0.90000,1.10000,0.90000
  1030,'1030        ',115.0000,1,1,1,1,   1.06431, -18.70916,1.10000,0.90000,1.10000,0.90000
  1031,'1031        ',115.0000,1,1,1,1,   1.06853, -23.67455,1.10000,0.90000,1.10000,0.90000
  1032,'1032        ',115.0000,1,1,1,1,   1.05172, -17.13956,1.10000,0.90000,1.10000,0.90000
  1033,'1033        ',230.0000,2,1,1,1,   1.07945, -21.31453,1.10000,0.90000,1.10000,0.90000
  1034,'1034        ',115.0000,1,1,1,1,   1.05926, -19.06974,1.10000,0.90000,1.10000,0.90000
  1035,'1035        ',13.8000,2,1,1,1,   1.05156, -16.09321,1.10000,0.90000,1.10000,0.90000
  1036,'1036        ',115.0000,1,1,1,1,   1.04293, -17.30831,1.10000,0.90000,1.10000,0.90000
  1037,'1037        ',115.0000,1,1,1,1,   1.02873, -28.39752,1.10000,0.90000,1.10000,0.90000
  1038,'1038        ',115.0000,1,1,1,1,   1.06180, -13.02208,1.10000,0.90000,1.10000,0.90000
  1039,'1039        ',22.0000,2,1,1,1,   1.04248,  -8.07423,1.10000,0.90000,1.10000,0.90000
  1040,'1040        ',115.0000,1,1,1,1,   1.03340, -26.35762,1.10000,0.90000,1.10000,0.90000
  1041,'1041        ',115.0000,1,1,1,1,   1.05984, -19.87073,1.10000,0.90000,1.10000,0.90000
  1042,'1042        ',13.8000,2,1,1,1,   1.05984, -19.87073,1.10000,0.90000,1.10000,0.90000
  1043,'1043        ',13.8000,2,1,1,1,   1.05714, -16.96962,1.10000,0.90000,1.10000,0.90000
  1044,'1044        ',115.0000,1,1,1,1,   1.06357, -28.28384,1.10000,0.90000,1.10000,0.90000
  1045,'1045        ',115.0000,1,1,1,1,   1.03189, -29.98176,1.10000,0.90000,1.10000,0.90000
  1046,'1046        ',115.0000,1,1,1,1,   1.08417, -25.20230,1.10000,0.90000,1.10000,0.90000
  1047,'1047        ',115.0000,1,1,1,1,   1.05424, -20.08414,1.10000,0.90000,1.10000,0.90000
  1048,'1048        ',18.0000,2,1,1,1,   1.05424, -20.08414,1.10000,0.90000,1.10000,0.90000
  1049,'1049        ',18.0000,2,1,1,1,   1.05424, -20.08414,1.10000,0.90000,1.10000,0.90000
  1050,'1050        ',18.0000,2,1,1,1,   1.04431, -15.78530,1.10000,0.90000,1.10000,0.90000
  1051,'1051        ',18.0000,2,1,1,1,   1.04243, -15.68105,1.10000,0.90000,1.10000,0.90000
  1052,'1052        ',18.0000,2,1,1,1,   1.04735, -16.76598,1.10000,0.90000,1.10000,0.90000
  1053,'1053        ',230.0000,2,1,1,1,   1.07272, -22.50666,1.10000,0.90000,1.10000,0.90000
  1054,'1054        ',115.0000,1,1,1,1,   1.06793, -26.40408,1.10000,0.90000,1.10000,0.90000
  1055,'1055        ',115.0000,1,1,1,1,   1.06061, -20.96012,1.10000,0.90000,1.10000,0.90000
  1056,'1056        ',115.0000,1,1,1,1,   1.08611, -26.41794,1.10000,0.90000,1.10000,0.90000
  1057,'1057        ',18.0000,2,1,1,1,   1.08611, -26.41794,1.10000,0.90000,1.10000,0.90000
  1058,'1058        ',115.0000,1,1,1,1,   1.06254, -15.53226,1.10000,0.90000,1.10000,0.90000
  1059,'1059        ',22.0000,2,1,1,1,   1.06254, -15.53226,1.10000,0.90000,1.10000,0.90000
  1060,'1060        ',22.0000,2,1,1,1,   1.06254, -15.53226,1.10000,0.90000,1.10000,0.90000
  1061,'1061        ',115.0000,1,1,1,1,   1.06493, -21.53338,1.10000,0.90000,1.10000,0.90000
  1062,'1062        ',13.8000,2,1,1,1,   1.06493, -21.53338,1.10000,0.90000,1.10000,0.90000
  1063,'1063        ',13.8000,2,1,1,1,   1.06493, -21.53338,1.10000,0.90000,1.10000,0.90000
  1064,'1064        ',115.0000,1,1,1,1,   1.02519, -29.87016,1.10000,0.90000,1.10000,0.90000
  1065,'1065        ',115.0000,1,1,1,1,   1.06365, -19.80421,1.10000,0.90000,1.10000,0.90000
  1066,'1066        ',13.8000,2,1,1,1,   1.05974, -13.09454,1.10000,0.90000,1.10000,0.90000
  1067,'1067        ',115.0000,1,1,1,1,   1.05584, -20.31178,1.10000,0.90000,1.10000,0.90000
  1068,'1068        ',115.0000,1,1,1,1,   1.03437, -20.90924,1.10000,0.90000,1.10000,0.90000
  1069,'1069        ',115.0000,1,1,1,1,   1.05860, -13.32168,1.10000,0.90000,1.10000,0.90000
  1070,'1070        ',13.8000,2,1,1,1,   1.04338,  -8.91051,1.10000,0.90000,1.10000,0.90000
  1071,'1071        ',115.0000,1,1,1,1,   1.03781, -27.58148,1.10000,0.90000,1.10000,0.90000
  1072,'1072        ',18.0000,2,1,1,1,   1.02897, -21.81886,1.10000,0.90000,1.10000,0.90000
  1073,'1073        ',18.0000,2,1,1,1,   1.02323, -17.67510,1.10000,0.90000,1.10000,0.90000
  1074,'1074        ',18.0000,2,1,1,1,   1.02727, -19.51994,1.10000,0.90000,1.10000,0.90000
  1075,'1075        ',18.0000,2,1,1,1,   1.01898, -19.72067,1.10000,0.90000,1.10000,0.90000
  1076,'1076        ',18.0000,2,1,1,1,   1.03781, -27.58148,1.10000,0.90000,1.10000,0.90000
  1077,'1077        ',18.0000,2,1,1,1,   1.03781, -27.58148,1.10000,0.90000,1.10000,0.90000
  1078,'1078        ',18.0000,2,1,1,1,   1.01313, -17.57628,1.10000,0.90000,1.10000,0.90000
  1079,'1079        ',500.0000,2,1,1,1,   1.08407, -39.16718,1.10000,0.90000,1.10000,0.90000
  1080,'1080        ',18.0000,2,1,1,1,   1.04407, -17.36120,1.10000,0.90000,1.10000,0.90000
  1081,'1081        ',230.0000,2,1,1,1,   1.07737, -23.33624,1.10000,0.90000,1.10000,0.90000
  1082,'1082        ',115.0000,2,1,1,1,   1.06158, -11.17923,1.10000,0.90000,1.10000,0.90000
  1083,'1083        ',115.0000,1,1,1,1,   1.06598, -15.34594,1.10000,0.90000,1.10000,0.90000
  1084,'1084        ',115.0000,2,1,1,1,   1.05736, -20.73979,1.10000,0.90000,1.10000,0.90000
  1085,'1085        ',115.0000,1,1,1,1,   1.05401, -21.78694,1.10000,0.90000,1.10000,0.90000
  1086,'1086        ',115.0000,1,1,1,1,   1.06512, -23.88159,1.10000,0.90000,1.10000,0.90000
  1087,'1087        ',115.0000,1,1,1,1,   1.07698, -19.78712,1.10000,0.90000,1.10000,0.90000
  1088,'1088        ',115.0000,2,1,1,1,   1.03912, -16.65007,1.10000,0.90000,1.10000,0.90000
  1089,'1089        ',115.0000,1,1,1,1,   1.04267, -24.42499,1.10000,0.90000,1.10000,0.90000
  1090,'1090        ',115.0000,2,1,1,1,   1.05062, -22.24609,1.10000,0.90000,1.10000,0.90000
  1091,'1091        ',161.0000,1,1,1,1,   1.09607, -31.95478,1.10000,0.90000,1.10000,0.90000
  2001,'2001        ',161.0000,1,1,1,1,   1.07591, -58.44449,1.10000,0.90000,1.10000,0.90000
  2002,'2002        ',500.0000,1,1,1,1,   1.07747, -59.29277,1.10000,0.90000,1.10000,0.90000
  2003,'2003        ',161.0000,1,1,1,1,   1.07762, -61.26052,1.10000,0.90000,1.10000,0.90000
  2004,'2004        ',13.8000,2,1,1,1,   1.07747, -59.29277,1.10000,0.90000,1.10000,0.90000
  2005,'2005        ',13.8000,2,1,1,1,   1.07747, -59.29277,1.10000,0.90000,1.10000,0.90000
  2006,'2006        ',13.8000,2,1,1,1,   1.07747, -59.29277,1.10000,0.90000,1.10000,0.90000
  2007,'2007        ',161.0000,1,1,1,1,   1.07616, -58.22070,1.10000,0.90000,1.10000,0.90000
  2008,'2008        ',161.0000,1,1,1,1,   1.08482, -33.48994,1.10000,0.90000,1.10000,0.90000
  2009,'2009        ',161.0000,1,1,1,1,   1.08906, -44.68006,1.10000,0.90000,1.10000,0.90000
  2010,'2010        ',161.0000,1,1,1,1,   1.09927, -36.82808,1.10000,0.90000,1.10000,0.90000
  2011,'2011        ',500.0000,1,1,1,1,   1.10000, -32.79683,1.10000,0.90000,1.10000,0.90000
  2012,'2012        ',161.0000,1,1,1,1,   1.09060, -30.81599,1.10000,0.90000,1.10000,0.90000
  2013,'2013        ',18.0000,2,1,1,1,   1.09220, -30.71186,1.10000,0.90000,1.10000,0.90000
  2014,'2014        ',161.0000,1,1,1,1,   1.08502, -34.01851,1.10000,0.90000,1.10000,0.90000
  2015,'2015        ',161.0000,1,1,1,1,   1.08065, -60.35405,1.10000,0.90000,1.10000,0.90000
  2016,'2016        ',161.0000,1,1,1,1,   1.07914, -66.48990,1.10000,0.90000,1.10000,0.90000
  2017,'2017        ',500.0000,1,1,1,1,   1.08982, -32.94141,1.10000,0.90000,1.10000,0.90000
  2018,'2018        ',161.0000,1,1,1,1,   1.08880, -32.22938,1.10000,0.90000,1.10000,0.90000
  2019,'2019        ',20.0000,2,1,1,1,   1.08982, -32.94141,1.10000,0.90000,1.10000,0.90000
  2020,'2020        ',161.0000,1,1,1,1,   1.05954, -44.35469,1.10000,0.90000,1.10000,0.90000
  2021,'2021        ',500.0000,1,1,1,1,   1.08645, -55.65101,1.10000,0.90000,1.10000,0.90000
  2022,'2022        ',161.0000,1,1,1,1,   1.08323, -57.28835,1.10000,0.90000,1.10000,0.90000
  2023,'2023        ',13.8000,2,1,1,1,   1.08934, -54.27919,1.10000,0.90000,1.10000,0.90000
  2024,'2024        ',13.8000,2,1,1,1,   1.08995, -53.69786,1.10000,0.90000,1.10000,0.90000
  2025,'2025        ',161.0000,1,1,1,1,   1.05637, -43.65291,1.10000,0.90000,1.10000,0.90000
  2026,'2026        ',161.0000,1,1,1,1,   1.08917, -31.88739,1.10000,0.90000,1.10000,0.90000
  2027,'2027        ',161.0000,1,1,1,1,   1.07659, -58.80434,1.10000,0.90000,1.10000,0.90000
  2028,'2028        ',161.0000,1,1,1,1,   1.06215, -46.42910,1.10000,0.90000,1.10000,0.90000
  2029,'2029        ',161.0000,1,1,1,1,   1.09113, -33.48388,1.10000,0.90000,1.10000,0.90000
  2030,'2030        ',161.0000,1,1,1,1,   1.06075, -61.69274,1.10000,0.90000,1.10000,0.90000
  2031,'2031        ',161.0000,1,1,1,1,   1.09471, -30.79069,1.10000,0.90000,1.10000,0.90000
  2032,'2032        ',161.0000,1,1,1,1,   1.07825, -57.72298,1.10000,0.90000,1.10000,0.90000
  2033,'2033        ',161.0000,1,1,1,1,   1.06148, -62.86606,1.10000,0.90000,1.10000,0.90000
  2034,'2034        ',161.0000,1,1,1,1,   1.07766, -65.95241,1.10000,0.90000,1.10000,0.90000
  2035,'2035        ',161.0000,1,1,1,1,   1.09183, -31.63657,1.10000,0.90000,1.10000,0.90000
  2036,'2036        ',161.0000,1,1,1,1,   1.06282, -44.00048,1.10000,0.90000,1.10000,0.90000
  2037,'2037        ',161.0000,1,1,1,1,   1.09155, -60.69414,1.10000,0.90000,1.10000,0.90000
  2038,'2038        ',161.0000,1,1,1,1,   1.07486, -61.67738,1.10000,0.90000,1.10000,0.90000
  2039,'2039        ',161.0000,1,1,1,1,   1.06372, -57.94750,1.10000,0.90000,1.10000,0.90000
  2040,'2040        ',161.0000,1,1,1,1,   1.08158, -57.88413,1.10000,0.90000,1.10000,0.90000
  2041,'2041        ',161.0000,1,1,1,1,   1.09185, -28.88372,1.10000,0.90000,1.10000,0.90000
  2042,'2042        ',18.0000,2,1,1,1,   1.08388, -26.60335,1.10000,0.90000,1.10000,0.90000
  2043,'2043        ',161.0000,1,1,1,1,   1.07815, -66.19974,1.10000,0.90000,1.10000,0.90000
  2044,'2044        ',161.0000,1,1,1,1,   1.08457, -62.31901,1.10000,0.90000,1.10000,0.90000
  2045,'2045        ',161.0000,1,1,1,1,   1.05953, -44.82869,1.10000,0.90000,1.10000,0.90000
  2046,'2046        ',161.0000,1,1,1,1,   1.07746, -65.63662,1.10000,0.90000,1.10000,0.90000
  2047,'2047        ',161.0000,1,1,1,1,   1.07708, -62.04452,1.10000,0.90000,1.10000,0.90000
  2048,'2048        ',161.0000,1,1,1,1,   1.09816, -32.61776,1.10000,0.90000,1.10000,0.90000
  2049,'2049        ',161.0000,1,1,1,1,   1.08648, -40.85023,1.10000,0.90000,1.10000,0.90000
  2050,'2050        ',161.0000,1,1,1,1,   1.06825, -61.10650,1.10000,0.90000,1.10000,0.90000
  2051,'2051        ',161.0000,1,1,1,1,   1.06121, -52.40216,1.10000,0.90000,1.10000,0.90000
  2052,'2052        ',161.0000,1,1,1,1,   1.08412, -32.69982,1.10000,0.90000,1.10000,0.90000
  2053,'2053        ',161.0000,1,1,1,1,   1.05981, -56.61308,1.10000,0.90000,1.10000,0.90000
  2054,'2054        ',500.0000,1,1,1,1,   1.06080, -42.82234,1.10000,0.90000,1.10000,0.90000
  2055,'2055        ',161.0000,1,1,1,1,   1.06064, -43.54098,1.10000,0.90000,1.10000,0.90000
  2056,'2056        ',18.0000,2,1,1,1,   1.06080, -42.82234,1.10000,0.90000,1.10000,0.90000
  2057,'2057        ',18.0000,2,1,1,1,   1.04912, -39.50820,1.10000,0.90000,1.10000,0.90000
  2058,'2058        ',161.0000,1,1,1,1,   1.09212, -28.50368,1.10000,0.90000,1.10000,0.90000
  2059,'2059        ',13.8000,2,1,1,1,   1.08291, -25.54091,1.10000,0.90000,1.10000,0.90000
  2060,'2060        ',161.0000,1,1,1,1,   1.07084, -60.01545,1.10000,0.90000,1.10000,0.90000
  2061,'2061        ',161.0000,1,1,1,1,   1.08879, -37.69375,1.10000,0.90000,1.10000,0.90000
  2062,'2062        ',18.0000,2,1,1,1,   1.08221, -35.65210,1.10000,0.90000,1.10000,0.90000
  2063,'2063        ',161.0000,1,1,1,1,   1.07869, -65.10196,1.10000,0.90000,1.10000,0.90000
  2064,'2064        ',161.0000,1,1,1,1,   1.07662, -58.64328,1.10000,0.90000,1.10000,0.90000
  2065,'2065        ',161.0000,1,1,1,1,   1.09544, -62.44617,1.10000,0.90000,1.10000,0.90000
  2066,'2066        ',161.0000,1,1,1,1,   1.08865, -29.02952,1.10000,0.90000,1.10000,0.90000
  2067,'2067        ',161.0000,1,1,1,1,   1.05307, -43.53986,1.10000,0.90000,1.10000,0.90000
  2068,'2068        ',161.0000,1,1,1,1,   1.05217, -41.55289,1.10000,0.90000,1.10000,0.90000
  2069,'2069        ',161.0000,1,1,1,1,   1.09221, -65.72139,1.10000,0.90000,1.10000,0.90000
  2070,'2070        ',161.0000,1,1,1,1,   1.05276, -41.12425,1.10000,0.90000,1.10000,0.90000
  2071,'2071        ',18.0000,2,1,1,1,   1.04048, -37.74884,1.10000,0.90000,1.10000,0.90000
  2072,'2072        ',161.0000,1,1,1,1,   1.08448, -64.06646,1.10000,0.90000,1.10000,0.90000
  2073,'2073        ',161.0000,1,1,1,1,   1.08727, -26.78185,1.10000,0.90000,1.10000,0.90000
  2074,'2074        ',115.0000,1,1,1,1,   1.08359, -25.15039,1.10000,0.90000,1.10000,0.90000
  2075,'2075        ',115.0000,1,1,1,1,   1.08359, -25.15039,1.10000,0.90000,1.10000,0.90000
  2076,'2076        ',24.0000,2,1,1,1,   1.08494, -25.96703,1.10000,0.90000,1.10000,0.90000
  2077,'2077        ',161.0000,1,1,1,1,   1.09016, -58.55203,1.10000,0.90000,1.10000,0.90000
  2078,'2078        ',13.8000,2,1,1,1,   1.07957, -55.60231,1.10000,0.90000,1.10000,0.90000
  2079,'2079        ',161.0000,1,1,1,1,   1.10000, -35.23735,1.10000,0.90000,1.10000,0.90000
  2080,'2080        ',161.0000,1,1,1,1,   1.06712, -55.29784,1.10000,0.90000,1.10000,0.90000
  2081,'2081        ',161.0000,1,1,1,1,   1.06980, -62.38729,1.10000,0.90000,1.10000,0.90000
  2082,'2082        ',161.0000,1,1,1,1,   1.06722, -44.30115,1.10000,0.90000,1.10000,0.90000
  2083,'2083        ',20.0000,2,1,1,1,   1.06465, -42.85339,1.10000,0.90000,1.10000,0.90000
  2084,'2084        ',20.0000,2,1,1,1,   1.06722, -44.30115,1.10000,0.90000,1.10000,0.90000
  2085,'2085        ',20.0000,2,1,1,1,   1.06722, -44.30115,1.10000,0.90000,1.10000,0.90000
  2086,'2086        ',161.0000,1,1,1,1,   1.06507, -56.94996,1.10000,0.90000,1.10000,0.90000
  2087,'2087        ',161.0000,1,1,1,1,   1.09070, -28.87573,1.10000,0.90000,1.10000,0.90000
  2088,'2088        ',161.0000,1,1,1,1,   1.05221, -41.25914,1.10000,0.90000,1.10000,0.90000
  2089,'2089        ',24.0000,2,1,1,1,   1.04012, -37.95335,1.10000,0.90000,1.10000,0.90000
  2090,'2090        ',161.0000,1,1,1,1,   1.07705, -59.31337,1.10000,0.90000,1.10000,0.90000
  2091,'2091        ',161.0000,1,1,1,1,   1.09490, -34.66484,1.10000,0.90000,1.10000,0.90000
  2092,'2092        ',161.0000,1,1,1,1,   1.07644, -63.64130,1.10000,0.90000,1.10000,0.90000
  2093,'2093        ',161.0000,1,1,1,1,   1.09026, -31.48605,1.10000,0.90000,1.10000,0.90000
  2094,'2094        ',13.8000,2,1,1,1,   1.09026, -31.48605,1.10000,0.90000,1.10000,0.90000
  2095,'2095        ',13.8000,2,1,1,1,   1.09026, -31.48605,1.10000,0.90000,1.10000,0.90000
  2096,'2096        ',500.0000,1,1,1,1,   1.08648, -29.11268,1.10000,0.90000,1.10000,0.90000
  2097,'2097        ',230.0000,1,1,1,1,   1.08426, -28.62911,1.10000,0.90000,1.10000,0.90000
  2098,'2098        ',161.0000,1,1,1,1,   1.09587, -31.42163,1.10000,0.90000,1.10000,0.90000
  2099,'2099        ',18.0000,2,1,1,1,   1.08604, -28.98584,1.10000,0.90000,1.10000,0.90000
  2100,'2100        ',18.0000,2,1,1,1,   1.07787, -26.77312,1.10000,0.90000,1.10000,0.90000
  2101,'2101        ',500.0000,1,1,1,1,   1.07392, -60.07516,1.10000,0.90000,1.10000,0.90000
  2102,'2102        ',161.0000,1,1,1,1,   1.07567, -61.29904,1.10000,0.90000,1.10000,0.90000
  2103,'2103        ',20.0000,2,1,1,1,   1.07392, -60.07516,1.10000,0.90000,1.10000,0.90000
  2104,'2104        ',20.0000,2,1,1,1,   1.07392, -60.07516,1.10000,0.90000,1.10000,0.90000
  2105,'2105        ',20.0000,2,1,1,1,   1.07392, -60.07516,1.10000,0.90000,1.10000,0.90000
  2106,'2106        ',161.0000,1,1,1,1,   1.05877, -63.35606,1.10000,0.90000,1.10000,0.90000
  2107,'2107        ',161.0000,1,1,1,1,   1.07044, -62.02866,1.10000,0.90000,1.10000,0.90000
  2108,'2108        ',161.0000,1,1,1,1,   1.07224, -42.82488,1.10000,0.90000,1.10000,0.90000
  2109,'2109        ',161.0000,1,1,1,1,   1.07533, -45.66765,1.10000,0.90000,1.10000,0.90000
...
0 / END OF BUS DATA, BEGIN LOAD DATA
  1001,'1 ',1,1,1,20.78000000,5.89000000, 0.000, 0.000,0.000,0.000,  1,1,0
  1002,'1 ',1,1,1,15.41000000,4.37000000, 0.000, 0.000,0.000,0.000,  1,1,0
  1007,'1 ',1,1,1,7.01000000,1.99000000, 0.000, 0.000,0.000,0.000,  1,1,0
  1012,'1 ',1,1,1,2.99000000,0.85000000, 0.000, 0.000,0.000,0.000,  1,1,0
  1013,'1 ',1,1,1,29.23000000,8.28000000, 0.000, 0.000,0.000,0.000,  1,1,0
  1014,'1 ',1,1,1,2.22000000,0.63000000, 0.000, 0.000,0.000,0.000,  1,1,0
  1015,'1 ',1,1,1,7.51000000,2.13000000, 0.000, 0.000,0.000,0.000,  1,1,0
  1016,'1 ',1,1,1,2.89000000,0.82000000, 0.000, 0.000,0.000,0.000,  1,1,0
  1017,'1 ',1,1,1,18.34000000,5.20000000, 0.000, 0.000,0.000,0.000,  1,1,0
  1018,'1 ',1,1,1,0.07000000,0.02000000, 0.000, 0.000,0.000,0.000,  1,1,0
  1019,'1 ',1,1,1,61.78000000,17.50000000, 0.000, 0.000,0.000,0.000,  1,1,0
  1024,'1 ',1,1,1,63.04000000,17.86000000, 0.000, 0.000,0.000,0.000,  1,1,0
  1027,'1 ',1,1,1,101.21000000,28.68000000, 0.000, 0.000,0.000,0.000,  1,1,0
  1028,'1 ',1,1,1,10.01000000,2.84000000, 0.000, 0.000,0.000,0.000,  1,1,0
  1029,'1 ',1,1,1,83.18000000,23.57000000, 0.000, 0.000,0.000,0.000,  1,1,0
  1030,'1 ',1,1,1,24.63000000,6.98000000, 0.000, 0.000,0.000,0.000,  1,1,0
  1031,'1 ',1,1,1,9.25000000,2.62000000, 0.000, 0.000,0.000,0.000,  1,1,0
  1036,'1 ',1,1,1,13.60000000,3.85000000, 0.000, 0.000,0.000,0.000,  1,1,0
  1037,'1 ',1,1,1,102.24000000,28.97000000, 0.000, 0.000,0.000,0.000,  1,1,0
  1040,'1 ',1,1,1,44.36000000,12.57000000, 0.000, 0.000,0.000,0.000,  1,1,0
  1044,'1 ',1,1,1,14.68000000,4.16000000, 0.000, 0.000,0.000,0.000,  1,1,0
  1045,'1 ',1,1,1,98.56000000,27.93000000, 0.000, 0.000,0.000,0.000,  1,1,0
  1046,'1 ',1,1,1,11.08000000,3.14000000, 0.000, 0.000,0.000,0.000,  1,1,0
  1054,'1 ',1,1,1,14.99000000,4.25000000, 0.000, 0.000,0.000,0.000,  1,1,0
  1055,'1 ',1,1,1,3.98000000,1.13000000, 0.000, 0.000,0.000,0.000,  1,1,0
  1058,'1 ',1,1,1,13.46000000,3.81000000, 0.000, 0.000,0.000,0.000,  1,1,0
  1064,'1 ',1,1,1,123.76000000,35.07000000, 0.000, 0.000,0.000,0.000,  1,1,0
  1067,'1 ',1,1,1,101.55000000,28.77000000, 0.000, 0.000,0.000,0.000,  1,1,0
  1068,'1 ',1,1,1,59.40000000,16.83000000, 0.000, 0.000,0.000,0.000,  1,1,0
  1071,'1 ',1,1,1,91.46000000,25.91000000, 0.000, 0.000,0.000,0.000,  1,1,0
  1083,'1 ',1,1,1,39.95000000,11.32000000, 0.000, 0.000,0.000,0.000,  1,1,0
  1085,'1 ',1,1,1,21.30000000,6.03000000, 0.000, 0.000,0.000,0.000,  1,1,0
  1086,'1 ',1,1,1,39.67000000,11.24000000, 0.000, 0.000,0.000,0.000,  1,1,0
  1087,'1 ',1,1,1,0.91000000,0.26000000, 0.000, 0.000,0.000,0.000,  1,1,0
  1089,'1 ',1,1,1,40.60000000,11.50000000, 0.000, 0.000,0.000,0.000,  1,1,0
  1091,'1 ',1,1,1,11.62000000,3.29000000, 0.000, 0.000,0.000,0.000,  1,1,0
  2001,'1 ',1,1,1,48.36000000,13.70000000, 0.000, 0.000,0.000,0.000,  1,1,0
  2007,'1 ',1,1,1,9.54000000,2.70000000, 0.000, 0.000,0.000,0.000,  1,1,0
  2008,'1 ',1,1,1,8.06000000,2.28000000, 0.000, 0.000,0.000,0.000,  1,1,0
  2009,'1 ',1,1,1,39.14000000,11.09000000, 0.000, 0.000,0.000,0.000,  1,1,0
  2010,'1 ',1,1,1,56.81000000,16.09000000, 0.000, 0.000,0.000,0.000,  1,1,0
  2014,'1 ',1,1,1,25.43000000,7.20000000, 0.000, 0.000,0.000,0.000,  1,1,0
  2015,'1 ',1,1,1,4.69000000,1.33000000, 0.000, 0.000,0.000,0.000,  1,1,0
  2016,'1 ',1,1,1,69.27000000,19.63000000, 0.000, 0.000,0.000,0.000,  1,1,0
  2020,'1 ',1,1,1,47.97000000,13.59000000, 0.000, 0.000,0.000,0.000,  1,1,0
  2022,'1 ',1,1,1,11.56000000,3.28000000, 0.000, 0.000,0.000,0.000,  1,1,0
  2025,'1 ',1,1,1,39.62000000,11.23000000, 0.000, 0.000,0.000,0.000,  1,1,0
  2026,'1 ',1,1,1,18.57000000,5.26000000, 0.000, 0.000,0.000,0.000,  1,1,0
  2027,'1 ',1,1,1,3.55000000,1.01000000, 0.000, 0.000,0.000,0.000,  1,1,0
  2028,'1 ',1,1,1,14.24000000,4.03000000, 0.000, 0.000,0.000,0.000,  1,1,0
  2029,'1 ',1,1,1,3.20000000,0.91000000, 0.000, 0.000,0.000,0.000,  1,1,0
  2030,'1 ',1,1,1,47.15000000,13.36000000, 0.000, 0.000,0.000,0.000,  1,1,0
  2031,'1 ',1,1,1,5.77000000,1.63000000, 0.000, 0.000,0.000,0.000,  1,1,0
  2032,'1 ',1,1,1,3.35000000,0.95000000, 0.000, 0.000,0.000,0.000,  1,1,0
  2033,'1 ',1,1,1,13.57000000,3.85000000, 0.000, 0.000,0.000,0.000,  1,1,0
  2034,'1 ',1,1,1,5.34000000,1.51000000, 0.000, 0.000,0.000,0.000,  1,1,0
  2035,'1 ',1,1,1,4.68000000,1.33000000, 0.000, 0.000,0.000,0.000,  1,1,0
  2036,'1 ',1,1,1,41.59000000,11.78000000, 0.000, 0.000,0.000,0.000,  1,1,0
  2037,'1 ',1,1,1,3.50000000,0.99000000, 0.000, 0.000,0.000,0.000,  1,1,0
  2038,'1 ',1,1,1,2.60000000,0.74000000, 0.000, 0.000,0.000,0.000,  1,1,0
  2039,'1 ',1,1,1,5.56000000,1.58000000, 0.000, 0.000,0.000,0.000,  1,1,0
  2040,'1 ',1,1,1,15.90000000,4.51000000, 0.000, 0.000,0.000,0.000,  1,1,0
  2043,'1 ',1,1,1,4.24000000,1.20000000, 0.000, 0.000,0.000,0.000,  1,1,0
  2044,'1 ',1,1,1,27.40000000,7.76000000, 0.000, 0.000,0.000,0.000,  1,1,0
  2045,'1 ',1,1,1,22.61000000,6.40000000, 0.000, 0.000,0.000,0.000,  1,1,0
  2046,'1 ',1,1,1,22.13000000,6.27000000, 0.000, 0.000,0.000,0.000,  1,1,0
  2047,'1 ',1,1,1,14.96000000,4.24000000, 0.000, 0.000,0.000,0.000,  1,1,0
  2048,'1 ',1,1,1,6.42000000,1.82000000, 0.000, 0.000,0.000,0.000,  1,1,0
  2049,'1 ',1,1,1,11.57000000,3.28000000, 0.000, 0.000,0.000,0.000,  1,1,0
  2050,'1 ',1,1,1,3.66000000,1.04000000, 0.000, 0.000,0.000,0.000,  1,1,0
  2051,'1 ',1,1,1,17.85000000,5.06000000, 0.000, 0.000,0.000,0.000,  1,1,0
  2052,'1 ',1,1,1,24.84000000,7.04000000, 0.000, 0.000,0.000,0.000,  1,1,0
  2053,'1 ',1,1,1,29.13000000,8.25000000, 0.000, 0.000,0.000,0.000,  1,1,0
  2055,'1 ',1,1,1,49.62000000,14.06000000, 0.000, 0.000,0.000,0.000,  1,1,0
  2060,'1 ',1,1,1,3.80000000,1.08000000, 0.000, 0.000,0.000,0.000,  1,1,0
  2063,'1 ',1,1,1,65.62000000,18.59000000, 0.000, 0.000,0.000,0.000,  1,1,0
  2064,'1 ',1,1,1,10.05000000,2.85000000, 0.000, 0.000,0.000,0.000,  1,1,0
  2065,'1 ',1,1,1,78.36000000,22.20000000, 0.000, 0.000,0.000,0.000,  1,1,0
  2066,'1 ',1,1,1,7.11000000,2.02000000, 0.000, 0.000,0.000,0.000,  1,1,0
  2067,'1 ',1,1,1,53.97000000,15.29000000, 0.000, 0.000,0.000,0.000,  1,1,0
  2068,'1 ',1,1,1,5.76000000,1.63000000, 0.000, 0.000,0.000,0.000,  1,1,0
  2069,'1 ',1,1,1,21.92000000,6.21000000, 0.000, 0.000,0.000,0.000,  1,1,0
  2072,'1 ',1,1,1,9.71000000,2.75000000, 0.000, 0.000,0.000,0.000,  1,1,0
  2079,'1 ',1,1,1,4.48000000,1.27000000, 0.000, 0.000,0.000,0.000,  1,1,0
  2080,'1 ',1,1,1,16.93000000,4.80000000, 0.000, 0.000,0.000,0.000,  1,1,0
  2081,'1 ',1,1,1,4.46000000,1.26000000, 0.000, 0.000,0.000,0.000,  1,1,0
  2082,'1 ',1,1,1,59.03000000,16.73000000, 0.000, 0.000,0.000,0.000,  1,1,0
  2086,'1 ',1,1,1,2.19000000,0.62000000, 0.000, 0.000,0.000,0.000,  1,1,0
  2087,'1 ',1,1,1,7.90000000,2.24000000, 0.000, 0.000,0.000,0.000,  1,1,0
  2090,'1 ',1,1,1,2.42000000,0.69000000, 0.000, 0.000,0.000,0.000,  1,1,0
  2091,'1 ',1,1,1,17.05000000,4.83000000, 0.000, 0.000,0.000,0.000,  1,1,0
  2092,'1 ',1,1,1,24.11000000,6.83000000, 0.000, 0.000,0.000,0.000,  1,1,0
  2106,'1 ',1,1,1,14.40000000,4.08000000, 0.000, 0.000,0.000,0.000,  1,1,0
  2107,'1 ',1,1,1,74.15000000,21.01000000, 0.000, 0.000,0.000,0.000,  1,1,0
  2108,'1 ',1,1,1,2.14000000,0.61000000, 0.000, 0.000,0.000,0.000,  1,1,0
  2109,'1 ',1,1,1,33.81000000,9.58000000, 0.000, 0.000,0.000,0.000,  1,1,0
  2110,'1 ',1,1,1,8.59000000,2.43000000, 0.000, 0.000,0.000,0.000,  1,1,0
  2111,'1 ',1,1,1,13.95000000,3.95000000, 0.000, 0.000,0.000,0.000,  1,1,0
  2112,'1 ',1,1,1,4.54000000,1.29000000, 0.000, 0.000,0.000,0.000,  1,1,0
  2114,'1 ',1,1,1,70.78000000,20.05000000, 0.000, 0.000,0.000,0.000,  1,1,0
  2121,'1 ',1,1,1,2.33000000,0.66000000, 0.000, 0.000,0.000,0.000,  1,1,0
  2122,'1 ',1,1,1,6.72000000,1.90000000, 0.000, 0.000,0.000,0.000,  1,1,0
  2124,'1 ',1,1,1,21.29000000,6.03000000, 0.000, 0.000,0.000,0.000,  1,1,0
  2125,'1 ',1,1,1,4.06000000,1.15000000, 0.000, 0.000,0.000,0.000,  1,1,0
  2126,'1 ',1,1,1,14.24000000,4.03000000, 0.000, 0.000,0.000,0.000,  1,1,0
  2129,'1 ',1,1,1,6.63000000,1.88000000, 0.000, 0.000,0.000,0.000,  1,1,0
  2132,'1 ',1,1,1,11.94000000,3.38000000, 0.000, 0.000,0.000,0.000,  1,1,0
  2133,'1 ',1,1,1,5.68000000,1.61000000, 0.000, 0.000,0.000,0.000,  1,1,0
  3002,'1 ',1,1,1,112.86000000,31.98000000, 0.000, 0.000,0.000,0.000,  1,1,0
  3005,'1 ',1,1,1,7.34000000,2.08000000, 0.000, 0.000,0.000,0.000,  1,1,0
  3006,'1 ',1,1,1,7.35000000,2.08000000, 0.000, 0.000,0.000,0.000,  1,1,0
  3007,'1 ',1,1,1,14.96000000,4.24000000, 0.000, 0.000,0.000,0.000,  1,1,0
  3008,'1 ',1,1,1,19.81000000,5.61000000, 0.000, 0.000,0.000,0.000,  1,1,0
  3009,'1 ',1,1,1,12.54000000,3.55000000, 0.000, 0.000,0.000,0.000,  1,1,0
  3010,'1 ',1,1,1,4.67000000,1.32000000, 0.000, 0.000,0.000,0.000,  1,1,0
  3011,'1 ',1,1,1,27.14000000,7.69000000, 0.000, 0.000,0.000,0.000,  1,1,0
  3012,'1 ',1,1,1,0.56000000,0.16000000, 0.000, 0.000,0.000,0.000,  1,1,0
  3013,'1 ',1,1,1,64.56000000,18.29000000, 0.000, 0.000,0.000,0.000,  1,1,0
  3014,'1 ',1,1,1,22.00000000,6.23000000, 0.000, 0.000,0.000,0.000,  1,1,0
  3015,'1 ',1,1,1,5.36000000,1.52000000, 0.000, 0.000,0.000,0.000,  1,1,0
  3021,'1 ',1,1,1,1.94000000,0.55000000, 0.000, 0.000,0.000,0.000,  1,1,0
  3022,'1 ',1,1,1,24.59000000,6.97000000, 0.000, 0.000,0.000,0.000,  1,1,0
  3023,'1 ',1,1,1,10.41000000,2.95000000, 0.000, 0.000,0.000,0.000,  1,1,0
  3024,'1 ',1,1,1,10.13000000,2.87000000, 0.000, 0.000,0.000,0.000,  1,1,0
  3025,'1 ',1,1,1,13.67000000,3.87000000, 0.000, 0.000,0.000,0.000,  1,1,0
  3029,'1 ',1,1,1,4.87000000,1.38000000, 0.000, 0.000,0.000,0.000,  1,1,0
  3030,'1 ',1,1,1,129.72000000,36.75000000, 0.000, 0.000,0.000,0.000,  1,1,0
  3031,'1 ',1,1,1,14.73000000,4.17000000, 0.000, 0.000,0.000,0.000,  1,1,0
  3032,'1 ',1,1,1,72.86000000,20.64000000, 0.000, 0.000,0.000,0.000,  1,1,0
  3035,'1 ',1,1,1,3.47000000,0.98000000, 0.000, 0.000,0.000,0.000,  1,1,0
  3036,'1 ',1,1,1,5.80000000,1.64000000, 0.000, 0.000,0.000,0.000,  1,1,0
  3040,'1 ',1,1,1,14.61000000,4.14000000, 0.000, 0.000,0.000,0.000,  1,1,0
  3042,'1 ',1,1,1,8.75000000,2.48000000, 0.000, 0.000,0.000,0.000,  1,1,0
  3049,'1 ',1,1,1,10.58000000,3.00000000, 0.000, 0.000,0.000,0.000,  1,1,0
  3051,'1 ',1,1,1,145.29000000,41.17000000, 0.000, 0.000,0.000,0.000,  1,1,0
  3052,'1 ',1,1,1,8.08000000,2.29000000, 0.000, 0.000,0.000,0.000,  1,1,0
  3066,'1 ',1,1,1,22.03000000,6.24000000, 0.000, 0.000,0.000,0.000,  1,1,0
  3069,'1 ',1,1,1,3.81000000,1.08000000, 0.000, 0.000,0.000,0.000,  1,1,0
  3072,'1 ',1,1,1,5.98000000,1.70000000, 0.000, 0.000,0.000,0.000,  1,1,0
  3075,'1 ',1,1,1,12.18000000,3.45000000, 0.000, 0.000,0.000,0.000,  1,1,0
  3076,'1 ',1,1,1,10.79000000,3.06000000, 0.000, 0.000,0.000,0.000,  1,1,0
  3077,'1 ',1,1,1,68.66000000,19.45000000, 0.000, 0.000,0.000,0.000,  1,1,0
  3093,'1 ',1,1,1,5.05000000,1.43000000, 0.000, 0.000,0.000,0.000,  1,1,0
  3099,'1 ',1,1,1,12.08000000,3.42000000, 0.000, 0.000,0.000,0.000,  1,1,0
  3100,'1 ',1,1,1,8.53000000,2.42000000, 0.000, 0.000,0.000,0.000,  1,1,0
  3101,'1 ',1,1,1,9.43000000,2.67000000, 0.000, 0.000,0.000,0.000,  1,1,0
  3102,'1 ',1,1,1,75.26000000,21.32000000, 0.000, 0.000,0.000,0.000,  1,1,0
  3103,'1 ',1,1,1,39.32000000,11.14000000, 0.000, 0.000,0.000,0.000,  1,1,0
  3107,'1 ',1,1,1,14.87000000,4.21000000, 0.000, 0.000,0.000,0.000,  1,1,0
  3108,'1 ',1,1,1,23.52000000,6.66000000, 0.000, 0.000,0.000,0.000,  1,1,0
  3114,'1 ',1,1,1,98.31000000,27.85000000, 0.000, 0.000,0.000,0.000,  1,1,0
  3115,'1 ',1,1,1,9.58000000,2.71000000, 0.000, 0.000,0.000,0.000,  1,1,0
  3123,'1 ',1,1,1,66.07000000,18.72000000, 0.000, 0.000,0.000,0.000,  1,1,0
  3124,'1 ',1,1,1,64.54000000,18.29000000, 0.000, 0.000,0.000,0.000,  1,1,0
  3125,'1 ',1,1,1,91.26000000,25.86000000, 0.000, 0.000,0.000,0.000,  1,1,0
  3126,'1 ',1,1,1,9.96000000,2.82000000, 0.000, 0.000,0.000,0.000,  1,1,0
  3128,'1 ',1,1,1,2.82000000,0.80000000, 0.000, 0.000,0.000,0.000,  1,1,0
  3130,'1 ',1,1,1,92.15000000,26.11000000, 0.000, 0.000,0.000,0.000,  1,1,0
  3132,'1 ',1,1,1,9.56000000,2.71000000, 0.000, 0.000,0.000,0.000,  1,1,0
  3136,'1 ',1,1,1,46.96000000,13.30000000, 0.000, 0.000,0.000,0.000,  1,1,0
  3138,'1 ',1,1,1,10.95000000,3.10000000, 0.000, 0.000,0.000,0.000,  1,1,0
  3139,'1 ',1,1,1,14.92000000,4.23000000, 0.000, 0.000,0.000,0.000,  1,1,0
  3140,'1 ',1,1,1,0.22000000,0.06000000, 0.000, 0.000,0.000,0.000,  1,1,0
  3142,'1 ',1,1,1,7.07000000,2.00000000, 0.000, 0.000,0.000,0.000,  1,1,0
  3143,'1 ',1,1,1,5.75000000,1.63000000, 0.000, 0.000,0.000,0.000,  1,1,0
  3144,'1 ',1,1,1,5.56000000,1.57000000, 0.000, 0.000,0.000,0.000,  1,1,0
  3145,'1 ',1,1,1,2.94000000,0.83000000, 0.000, 0.000,0.000,0.000,  1,1,0
  3146,'1 ',1,1,1,12.04000000,3.41000000, 0.000, 0.000,0.000,0.000,  1,1,0
  3147,'1 ',1,1,1,34.76000000,9.85000000, 0.000, 0.000,0.000,0.000,  1,1,0
  4002,'1 ',1,1,1,1.01000000,0.29000000, 0.000, 0.000,0.000,0.000,  1,1,0
  4003,'1 ',1,1,1,127.29000000,36.07000000, 0.000, 0.000,0.000,0.000,  1,1,0
  4005,'1 ',1,1,1,164.14000000,46.51000000, 0.000, 0.000,0.000,0.000,  1,1,0
  4006,'1 ',1,1,1,2.75000000,0.78000000, 0.000, 0.000,0.000,0.000,  1,1,0
  4007,'1 ',1,1,1,183.66000000,52.04000000, 0.000, 0.000,0.000,0.000,  1,1,0
  4008,'1 ',1,1,1,32.49000000,9.21000000, 0.000, 0.000,0.000,0.000,  1,1,0
  4011,'1 ',1,1,1,16.05000000,4.55000000, 0.000, 0.000,0.000,0.000,  1,1,0
  4012,'1 ',1,1,1,13.74000000,3.89000000, 0.000, 0.000,0.000,0.000,  1,1,0
  4013,'1 ',1,1,1,92.35000000,26.17000000, 0.000, 0.000,0.000,0.000,  1,1,0
  4015,'1 ',1,1,1,159.81000000,45.28000000, 0.000, 0.000,0.000,0.000,  1,1,0
  4016,'1 ',1,1,1,6.25000000,1.77000000, 0.000, 0.000,0.000,0.000,  1,1,0
  4017,'1 ',1,1,1,89.56000000,25.38000000, 0.000, 0.000,0.000,0.000,  1,1,0
  4018,'1 ',1,1,1,7.14000000,2.02000000, 0.000, 0.000,0.000,0.000,  1,1,0
  4019,'1 ',1,1,1,135.83000000,38.48000000, 0.000, 0.000,0.000,0.000,  1,1,0
  4020,'1 ',1,1,1,117.81000000,33.38000000, 0.000, 0.000,0.000,0.000,  1,1,0
  4021,'1 ',1,1,1,31.97000000,9.06000000, 0.000, 0.000,0.000,0.000,  1,1,0
  4022,'1 ',1,1,1,5.56000000,1.58000000, 0.000, 0.000,0.000,0.000,  1,1,0
  4023,'1 ',1,1,1,5.06000000,1.43000000, 0.000, 0.000,0.000,0.000,  1,1,0
  4027,'1 ',1,1,1,65.12000000,18.45000000, 0.000, 0.000,0.000,0.000,  1,1,0
  4031,'1 ',1,1,1,2.75000000,0.78000000, 0.000, 0.000,0.000,0.000,  1,1,0
  4032,'1 ',1,1,1,91.39000000,25.89000000, 0.000, 0.000,0.000,0.000,  1,1,0
  4033,'1 ',1,1,1,126.25000000,35.77000000, 0.000, 0.000,0.000,0.000,  1,1,0
  4034,'1 ',1,1,1,37.64000000,10.66000000, 0.000, 0.000,0.000,0.000,  1,1,0
  4035,'1 ',1,1,1,79.16000000,22.43000000, 0.000, 0.000,0.000,0.000,  1,1,0
  4036,'1 ',1,1,1,35.07000000,9.94000000, 0.000, 0.000,0.000,0.000,  1,1,0
  4037,'1 ',1,1,1,28.72000000,8.14000000, 0.000, 0.000,0.000,0.000,  1,1,0
  4038,'1 ',1,1,1,83.30000000,23.60000000, 0.000, 0.000,0.000,0.000,  1,1,0
  4040,'1 ',1,1,1,225.66000000,63.94000000, 0.000, 0.000,0.000,0.000,  1,1,0
  4042,'1 ',1,1,1,215.18000000,60.97000000, 0.000, 0.000,0.000,0.000,  1,1,0
  4043,'1 ',1,1,1,2.47000000,0.70000000, 0.000, 0.000,0.000,0.000,  1,1,0
  4048,'1 ',1,1,1,13.10000000,3.71000000, 0.000, 0.000,0.000,0.000,  1,1,0
...
0 / END OF LOAD DATA, BEGIN FIXED SHUNT DATA
  1007,'1 ',1,    0.000,     0.080
  1010,'1 ',1,    0.000,    -2.190
  1012,'1 ',1,    0.000,     9.500
  1016,'1 ',1,    0.000,    30.000
  1019,'1 ',1,    0.000,   142.980
  1020,'1 ',1,    0.000,    76.730
  1027,'1 ',1,    0.000,    75.000
  1029,'1 ',1,    0.000,    65.410
  1033,'1 ',1,    0.000,    50.000
  1046,'1 ',1,    0.000,    12.000
  1056,'1 ',1,    0.000,    56.130
  1081,'1 ',1,    0.000,    79.770
  1083,'1 ',1,    0.000,    26.150
  1086,'1 ',1,    0.000,    30.000
  1087,'1 ',1,    0.000,    14.050
  2009,'1 ',1,    0.000,   120.000
  2010,'1 ',1,    0.000,    30.170
  2017,'1 ',1,    0.000,  -200.000
  2063,'1 ',1,    0.000,    40.000
  2065,'1 ',1,    0.000,   100.000
  2069,'1 ',1,    0.000,   120.000
  2096,'1 ',1,    0.000,   -68.510
  2110,'1 ',1,    0.000,    50.000
  2127,'1 ',1,    0.000,  -184.860
  2132,'1 ',1,    0.000,    10.000
  3013,'1 ',1,    0.000,    65.000
  3019,'1 ',1,    0.000,    40.950
  3023,'1 ',1,    0.000,    50.000
  3030,'1 ',1,    0.000,    80.000
  3046,'1 ',1,    0.000,   200.000
  3047,'1 ',1,    0.000,   116.240
  3050,'1 ',1,    0.000,    65.000
  3051,'1 ',1,    0.000,    20.000
  3088,'1 ',1,    0.000,   126.230
  3091,'1 ',1,    0.000,    65.800
  3124,'1 ',1,    0.000,    45.000
  3126,'1 ',1,    0.000,    40.320
  3142,'1 ',1,    0.000,    30.000
  3143,'1 ',1,    0.000,    17.000
  3146,'1 ',1,    0.000,    15.000
  3147,'1 ',1,    0.000,    33.860
  4005,'1 ',1,    0.000,    70.000
  4012,'1 ',1,    0.000,    50.000
  4015,'1 ',1,    0.000,    67.880
  4037,'1 ',1,    0.000,    65.000
  4040,'1 ',1,    0.000,   379.680
  4066,'1 ',1,    0.000,   145.130
  4086,'1 ',1,    0.000,   102.930
  4087,'1 ',1,    0.000,   120.000
  4088,'1 ',1,    0.000,   282.760
  4103,'1 ',1,    0.000,   120.000
  4121,'1 ',1,    0.000,    50.000
  4122,'1 ',1,    0.000,   150.000
  4127,'1 ',1,    0.000,    70.000
  4128,'1 ',1,    0.000,    70.000
  4130,'1 ',1,    0.000,    23.990
  4131,'1 ',1,    0.000,    71.450
  4141,'1 ',1,    0.000,    86.250
  4147,'1 ',1,    0.000,   100.000
  4171,'1 ',1,    0.000,   100.000
  4174,'1 ',1,    0.000,    85.000
  4175,'1 ',1,    0.000,    21.780
  4178,'1 ',1,    0.000,    44.770
  4185,'1 ',1,    0.000,    20.630
  4186,'1 ',1,    0.000,    53.800
  4197,'1 ',1,    0.000,     4.120
  5013,'1 ',1,    0.000,    44.890
  5061,'1 ',1,    0.000,    35.420
  5077,'1 ',1,    0.000,    81.780
  5090,'1 ',1,    0.000,   175.000
  5093,'1 ',1,    0.000,   215.000
  5098,'1 ',1,    0.000,   250.000
  5099,'1 ',1,    0.000,   200.000
  5108,'1 ',1,    0.000,   437.230
  5121,'1 ',1,    0.000,    30.000
  5139,'1 ',1,    0.000,   270.000
  5161,'1 ',1,    0.000,   210.000
  5172,'1 ',1,    0.000,   200.000
  5191,'1 ',1,    0.000,    60.000
  5217,'1 ',1,    0.000,   438.770
  5219,'1 ',1,    0.000,    30.530
  5264,'1 ',1,    0.000,    80.930
  5289,'1 ',1,    0.000,   250.000
  5316,'1 ',1,    0.000,   471.170
  5339,'1 ',1,    0.000,   200.000
  5346,'1 ',1,    0.000,   260.000
  5378,'1 ',1,    0.000,   113.050
  5386,'1 ',1,    0.000,   160.000
  5411,'1 ',1,    0.000,   174.610
  5421,'1 ',1,    0.000,   167.520
  5422,'1 ',1,    0.000,   479.280
  5440,'1 ',1,    0.000,   200.000
  5478,'1 ',1,    0.000,   120.000
  5482,'1 ',1,    0.000,   260.000
  6001,'1 ',1,    0.000,   237.220
  6012,'1 ',1,    0.000,    93.730
  6024,'1 ',1,    0.000,   250.000
  6025,'1 ',1,    0.000,   370.200
  6091,'1 ',1,    0.000,    80.000
  6092,'1 ',1,    0.000,    45.740
  6096,'1 ',1,    0.000,    78.210
  6103,'1 ',1,    0.000,    59.340
  6127,'1 ',1,    0.000,     9.380
  6151,'1 ',1,    0.000,    55.010
  6158,'1 ',1,    0.000,    66.900
  6177,'1 ',1,    0.000,   409.400
  6207,'1 ',1,    0.000,   155.150
  6221,'1 ',1,    0.000,    62.010
  6229,'1 ',1,    0.000,   323.030
  6286,'1 ',1,    0.000,    90.700
  6320,'1 ',1,    0.000,   221.360
  6331,'1 ',1,    0.000,   147.190
  6356,'1 ',1,    0.000,   363.100
  6358,'1 ',1,    0.000,   156.580
  7028,'1 ',1,    0.000,   481.690
  7075,'1 ',1,    0.000,   342.500
  7089,'1 ',1,    0.000,   316.530
  7091,'1 ',1,    0.000,   307.420
  7145,'1 ',1,    0.000,   314.220
  7150,'1 ',1,    0.000,   165.540
  7183,'1 ',1,    0.000,   452.290
  7198,'1 ',1,    0.000,   230.610
  7235,'1 ',1,    0.000,   221.030
  7236,'1 ',1,    0.000,   247.160
  7238,'1 ',1,    0.000,    88.800
  7262,'1 ',1,    0.000,    70.930
  7273,'1 ',1,    0.000,   215.810
  7276,'1 ',1,    0.000,   457.620
  7277,'1 ',1,    0.000,    37.770
  7294,'1 ',1,    0.000,    30.000
  7300,'1 ',1,    0.000,   194.220
  7397,'1 ',1,    0.000,   100.000
  8003,'1 ',1,    0.000,    37.970
  8005,'1 ',1,    0.000,   140.210
  8006,'1 ',1,    0.000,    71.000
  8013,'1 ',1,    0.000,    50.000
  8016,'1 ',1,    0.000,    54.970
  8019,'1 ',1,    0.000,   177.920
  8022,'1 ',1,    0.000,    16.680
  8025,'1 ',1,    0.000,    51.210
  8041,'1 ',1,    0.000,    50.000
  8091,'1 ',1,    0.000,    35.000
  8107,'1 ',1,    0.000,    30.000
  8110,'1 ',1,    0.000,    40.000
  8120,'1 ',1,    0.000,    98.530
  8125,'1 ',1,    0.000,    30.000
  8138,'1 ',1,    0.000,    58.770
  8151,'1 ',1,    0.000,    46.400
  8159,'1 ',1,    0.000,   108.630
0 / END OF FIXED SHUNT DATA, BEGIN GENERATOR DATA
   1004,'1 ',158.2500,-30.3636,674.1000,-455.7000,1.06831,    0,744.6529, 0.0000, 0.0500, 0.0000, 0.0000, 1.0000, 1,100.0000,316.3813,  0.0000,1,1.0000,   0,   1.0,   0,   1.0,   0,   1.0, 1, 1.0000
   1006,'1 ', 25.7300, -4.9400,109.6500,-74.1000,1.05631,    0,121.1207, 0.0000, 0.0500, 0.0000, 0.0000, 1.0000, 1,100.0000,51.4500,  0.0000,1,1.0000,   0,   1.0,   0,   1.0,   0,   1.0, 1, 1.0000
   1009,'1 ', 61.8700,-11.8800,263.5500,-178.2000,1.04960,    0,285.6884, 0.0000, 0.0500, 0.0000, 0.0000, 1.0000, 1,100.0000,110.2690,  0.0000,1,1.0000,   0,   1.0,   0,   1.0,   0,   1.0, 1, 1.0000
   1011,'1 ', 10.0000,  0.0000,  0.0000,  0.0000,1.07989,    0,15.0000, 0.0000, 0.0500, 0.0000, 0.0000, 1.0000, 1,100.0000,15.0000,  0.0000,1,1.0000,   0,   1.0,   0,   1.0,   0,   1.0, 1, 1.0000
   1021,'1 ',149.6300,-28.7300,637.3500,-430.9500,1.04479,    0,704.1062, 0.0000, 0.0500, 0.0000, 0.0000, 1.0000, 1,100.0000,299.2500,  0.0000,1,1.0000,   0,   1.0,   0,   1.0,   0,   1.0, 1, 1.0000
   1023,'1 ',135.0000, 17.0167,575.1000,-388.8000,1.08572,    0,632.7407, 0.0000, 0.0500, 0.0000, 0.0000, 1.0000, 1,100.0000,263.8575,  0.0000,1,1.0000,   0,   1.0,   0,   1.0,   0,   1.0, 1, 1.0000
   1026,'1 ', 93.1500, -6.5316,396.7500,-268.2000,1.04638,    0,438.3130, 0.0000, 0.0500, 0.0000, 0.0000, 1.0000, 1,100.0000,186.3000,  0.0000,1,1.0000,   0,   1.0,   0,   1.0,   0,   1.0, 1, 1.0000
   1033,'1 ',208.5000,-40.0300,888.1500,-600.4500,1.07945,    0,980.4427, 0.0000, 0.0500, 0.0000, 0.0000, 1.0000, 1,100.0000,415.2799,  0.0000,1,1.0000,   0,   1.0,   0,   1.0,   0,   1.0, 1, 1.0000
   1035,'1 ', 67.5000,-11.2369,287.5500,-194.4000,1.05156,    0,317.6633, 0.0000, 0.0500, 0.0000, 0.0000, 1.0000, 1,100.0000,135.0000,  0.0000,1,1.0000,   0,   1.0,   0,   1.0,   0,   1.0, 1, 1.0000
   1039,'1 ',110.6300,-21.2400,471.3000,-318.6000,1.04248,    0,519.2531, 0.0000, 0.0500, 0.0000, 0.0000, 1.0000, 1,100.0000,217.9451,  0.0000,1,1.0000,   0,   1.0,   0,   1.0,   0,   1.0, 1, 1.0000
   1042,'1 ',  0.0000,  0.0000,389.4000,-263.2500,1.00000,    0,146.2800, 0.0000, 0.0500, 0.0000, 0.0000, 1.0000, 0,100.0000,182.8500,  0.0000,1,1.0000,   0,   1.0,   0,   1.0,   0,   1.0, 1, 1.0000
   1043,'1 ', 44.1000, -2.1336,187.8000,-127.0500,1.05714,    0,207.4803, 0.0000, 0.0500, 0.0000, 0.0000, 1.0000, 1,100.0000,88.2000,  0.0000,1,1.0000,   0,   1.0,   0,   1.0,   0,   1.0, 1, 1.0000
   1048,'1 ',  0.0000,  0.0000,165.5300,-36.1000,1.00000,    0,390.2400, 0.0000, 0.0500, 0.0000, 0.0000, 1.0000, 0,100.0000,325.2000, 97.5600,  1,1.0000
   1049,'1 ',  0.0000,  0.0000,165.5300,-36.1000,1.00000,    0,390.2400, 0.0000, 0.0500, 0.0000, 0.0000, 1.0000, 0,100.0000,325.2000, 97.5600,  1,1.0000
   1050,'1 ', 82.7035, -9.9200, 45.5000, -9.9200,1.04431,    0,107.2800, 0.0000, 0.0500, 0.0000, 0.0000, 1.0000, 1,100.0000,89.4000, 26.8200,  1,1.0000
   1051,'1 ', 65.3279, -9.9200, 45.5000, -9.9200,1.04243,    0,107.2800, 0.0000, 0.0500, 0.0000, 0.0000, 1.0000, 1,100.0000,89.4000, 26.8200,  1,1.0000
   1052,'1 ', 76.9304, -9.9200, 45.5000, -9.9200,1.04735,    0,107.2800, 0.0000, 0.0500, 0.0000, 0.0000, 1.0000, 1,100.0000,89.4000, 26.8200,  1,1.0000
   1053,'1 ',  0.0000,  0.0000, 91.0100,-19.8500,1.00000,    0,214.5600, 0.0000, 0.0500, 0.0000, 0.0000, 1.0000, 0,100.0000,178.8000, 53.6400,  1,1.0000
   1057,'1 ',  0.0000,  0.0000,383.4000,-259.2000,1.00000,    0,144.0000, 0.0000, 0.0500, 0.0000, 0.0000, 1.0000, 0,100.0000,180.0000,  0.0000,1,1.0000,   0,   1.0,   0,   1.0,   0,   1.0, 1, 1.0000
   1059,'1 ',  0.0000,  0.0000,  2.8500, -0.6200,1.04000,    0, 6.7200, 0.0000, 0.0500, 0.0000, 0.0000, 1.0000, 0,100.0000, 5.6000,  1.6800,  1,1.0000
   1060,'1 ',  0.0000,  0.0000,  1.0200, -0.2200,1.04000,    0, 2.4000, 0.0000, 0.0500, 0.0000, 0.0000, 1.0000, 0,100.0000, 2.0000,  0.6000,  1,1.0000
   1062,'1 ',  0.0000,  0.0000,  0.0000,  0.0000,1.01000,    0, 1.8000, 0.0000, 0.0500, 0.0000, 0.0000, 1.0000, 0,100.0000, 2.2500,  0.0000,1,1.0000,   0,   1.0,   0,   1.0,   0,   1.0, 1, 1.0000
   1063,'1 ',  0.0000,  0.0000,  0.0000,  0.0000,1.01000,    0,276.0000, 0.0000, 0.0500, 0.0000, 0.0000, 1.0000, 0,100.0000,345.0000,  0.0000,1,1.0000,   0,   1.0,   0,   1.0,   0,   1.0, 1, 1.0000
   1066,'1 ',106.8800, -1.5015,455.2500,-307.8000,1.05974,    0,502.9046, 0.0000, 0.0500, 0.0000, 0.0000, 1.0000, 1,100.0000,213.6832,  0.0000,1,1.0000,   0,   1.0,   0,   1.0,   0,   1.0, 1, 1.0000
   1070,'1 ',120.3800,-23.1100,512.8500,-346.6500,1.04338,    0,566.5472, 0.0000, 0.0500, 0.0000, 0.0000, 1.0000, 1,100.0000,240.7500,  0.0000,1,1.0000,   0,   1.0,   0,   1.0,   0,   1.0, 1, 1.0000
   1072,'1 ',124.6474,-12.0368, 97.8000,-21.3300,1.02897,    0,230.5600, 0.0000, 0.0500, 0.0000, 0.0000, 1.0000, 1,100.0000,192.1300, 57.6400,  1,1.0000
   1073,'1 ',128.0343, -3.8399, 97.8000,-21.3300,1.02323,    0,230.5600, 0.0000, 0.0500, 0.0000, 0.0000, 1.0000, 1,100.0000,192.1300, 57.6400,  1,1.0000
   1074,'1 ',119.7919, -5.7647, 97.8000,-21.3300,1.02727,    0,230.5600, 0.0000, 0.0500, 0.0000, 0.0000, 1.0000, 1,100.0000,192.1300, 57.6400,  1,1.0000
   1075,'1 ',144.5618,-14.6890, 97.8000,-21.3300,1.01898,    0,230.5600, 0.0000, 0.0500, 0.0000, 0.0000, 1.0000, 1,100.0000,192.1300, 57.6400,  1,1.0000
   1076,'1 ',  0.0000,  0.0000, 97.8000,-21.3300,1.01000,    0,230.5600, 0.0000, 0.0500, 0.0000, 0.0000, 1.0000, 0,100.0000,192.1300, 57.6400,  1,1.0000
   1077,'1 ',  0.0000,  0.0000, 97.8000,-21.3300,1.01000,    0,230.5600, 0.0000, 0.0500, 0.0000, 0.0000, 1.0000, 0,100.0000,192.1300, 57.6400,  1,1.0000
   1078,'1 ', 95.5000, -7.3885, 48.6100,-10.6000,1.01313,    0,114.6000, 0.0000, 0.0500, 0.0000, 0.0000, 1.0000, 1,100.0000,95.5000, 28.6500,  1,1.0000
   1079,'1 ', 95.5000, 33.4598, 48.6100,-10.6000,1.08407,    0,114.6000, 0.0000, 0.0500, 0.0000, 0.0000, 1.0000, 1,100.0000,95.5000, 28.6500,  1,1.0000
   1080,'1 ', 95.5000,  6.0433, 48.6100,-10.6000,1.04407,    0,114.6000, 0.0000, 0.0500, 0.0000, 0.0000, 1.0000, 1,100.0000,95.5000, 28.6500,  1,1.0000
   1081,'1 ',  0.0000,  0.0000,145.8300,-31.8000,1.01000,    0,343.8000, 0.0000, 0.0500, 0.0000, 0.0000, 1.0000, 0,100.0000,286.5000, 85.9500,  1,1.0000
   1082,'1 ',112.5000,-21.6000,479.2500,-324.0000,1.06158,    0,529.4389, 0.0000, 0.0500, 0.0000, 0.0000, 1.0000, 1,100.0000,225.0000,  0.0000,1,1.0000,   0,   1.0,   0,   1.0,   0,   1.0, 1, 1.0000
   1084,'1 ', 86.6200,-16.6300,369.0000,-249.4500,1.05736,    0,407.6476, 0.0000, 0.0500, 0.0000, 0.0000, 1.0000, 1,100.0000,173.2500,  0.0000,1,1.0000,   0,   1.0,   0,   1.0,   0,   1.0, 1, 1.0000
   1088,'1 ', 56.2500,-10.8000,239.5500,-162.0000,1.03912,    0,264.6516, 0.0000, 0.0500, 0.0000, 0.0000, 1.0000, 1,100.0000,112.5000,  0.0000,1,1.0000,   0,   1.0,   0,   1.0,   0,   1.0, 1, 1.0000
   1090,'1 ',114.3700,  7.5457,487.2000,-329.4000,1.05062,    0,538.2289, 0.0000, 0.0500, 0.0000, 0.0000, 1.0000, 1,100.0000,228.7500,  0.0000,1,1.0000,   0,   1.0,   0,   1.0,   0,   1.0, 1, 1.0000
   1090,'2 ', 27.0000,  1.3134,115.0500,-77.7000,1.05062,    0,127.0925, 0.0000, 0.0500, 0.0000, 0.0000, 1.0000, 1,100.0000,54.0000,  0.0000,1,1.0000,   0,   1.0,   0,   1.0,   0,   1.0, 1, 1.0000
   2004,'1 ',  0.0000,  0.0000,199.4300,-43.4900,1.02000,    0,470.1600, 0.0000, 0.0500, 0.0000, 0.0000, 1.0000, 0,100.0000,391.8000,117.5400,  1,1.0000
   2005,'1 ',  0.0000,  0.0000,199.4300,-43.4900,1.02000,    0,470.1600, 0.0000, 0.0500, 0.0000, 0.0000, 1.0000, 0,100.0000,391.8000,117.5400,  1,1.0000
   2006,'1 ',  0.0000,  0.0000,199.4300,-43.4900,1.02000,    0,470.1600, 0.0000, 0.0500, 0.0000, 0.0000, 1.0000, 0,100.0000,391.8000,117.5400,  1,1.0000
   2013,'1 ',150.4500,-28.8900,640.9500,-433.3500,1.09220,    0,708.0662, 0.0000, 0.0500, 0.0000, 0.0000, 1.0000, 1,100.0000,300.9000,  0.0000,1,1.0000,   0,   1.0,   0,   1.0,   0,   1.0, 1, 1.0000
   2019,'1 ',  0.0000,  0.0000,696.4500,-470.8500,1.04000,    0,261.6000, 0.0000, 0.0500, 0.0000, 0.0000, 1.0000, 0,100.0000,327.0000,  0.0000,1,1.0000,   0,   1.0,   0,   1.0,   0,   1.0, 1, 1.0000
   2023,'1 ', 83.3300,  8.9258, 42.4200, -9.2500,1.08934,    0,100.0000, 0.0000, 0.0500, 0.0000, 0.0000, 1.0000, 1,100.0000,83.3300, 25.0000,  1,1.0000
   2024,'1 ',166.6700, 16.0906, 84.8300,-18.5000,1.08995,    0,200.0000, 0.0000, 0.0500, 0.0000, 0.0000, 1.0000, 1,100.0000,166.6700, 50.0000,  1,1.0000
   2042,'1 ', 59.7000,-11.4600,254.2500,-171.9000,1.08388,    0,280.8904, 0.0000, 0.0500, 0.0000, 0.0000, 1.0000, 1,100.0000,119.4000,  0.0000,1,1.0000,   0,   1.0,   0,   1.0,   0,   1.0, 1, 1.0000
   2056,'1 ',  0.0000,  0.0000,  2.8000, -0.7300,0.99000,    0, 7.2000, 0.0000, 0.0500, 0.0000, 0.0000, 1.0000, 0,100.0000, 6.0000,  1.8000,  1,1.0000
   2057,'1 ',485.3769,-87.8400,335.5200,-87.8400,1.04912,    0,864.0000, 0.0000, 0.0500, 0.0000, 0.0000, 1.0000, 1,100.0000,720.0000,216.0000,  1,1.0000
   2059,'1 ', 60.0000,-11.5200,255.6000,-172.8000,1.08291,    0,282.2751, 0.0000, 0.0500, 0.0000, 0.0000, 1.0000, 1,100.0000,119.7825,  0.0000,1,1.0000,   0,   1.0,   0,   1.0,   0,   1.0, 1, 1.0000
   2062,'1 ',101.5500,-19.5000,432.6000,-292.5000,1.08221,    0,477.9041, 0.0000, 0.0500, 0.0000, 0.0000, 1.0000, 1,100.0000,203.1000,  0.0000,1,1.0000,   0,   1.0,   0,   1.0,   0,   1.0, 1, 1.0000
   2071,'1 ',112.5000,-21.6000,479.2500,-324.0000,1.04048,    0,529.4389, 0.0000, 0.0500, 0.0000, 0.0000, 1.0000, 1,100.0000,225.0000,  0.0000,1,1.0000,   0,   1.0,   0,   1.0,   0,   1.0, 1, 1.0000
   2076,'1 ', 22.5000, -4.3200, 95.8500,-64.8000,1.08494,    0,105.8878, 0.0000, 0.0500, 0.0000, 0.0000, 1.0000, 1,100.0000,45.0000,  0.0000,1,1.0000,   0,   1.0,   0,   1.0,   0,   1.0, 1, 1.0000
   2078,'1 ', 84.3800,-16.2000,359.4000,-243.0000,1.07957,    0,397.0452, 0.0000, 0.0500, 0.0000, 0.0000, 1.0000, 1,100.0000,168.7500,  0.0000,1,1.0000,   0,   1.0,   0,   1.0,   0,   1.0, 1, 1.0000
   2083,'1 ', 20.0000, -2.2200, 10.1800, -2.2200,1.06465,    0,24.0000, 0.0000, 0.0500, 0.0000, 0.0000, 1.0000, 1,100.0000,20.0000,  6.0000,  1,1.0000
   2084,'1 ',  0.0000,  0.0000, 10.1800, -2.2200,1.02000,    0,24.0000, 0.0000, 0.0500, 0.0000, 0.0000, 1.0000, 0,100.0000,20.0000,  6.0000,  1,1.0000
   2085,'1 ',  0.0000,  0.0000, 20.3600, -4.4400,1.02000,    0,48.0000, 0.0000, 0.0500, 0.0000, 0.0000, 1.0000, 0,100.0000,40.0000, 12.0000,  1,1.0000
   2089,'1 ', 50.7000, -9.7300,216.0000,-145.9500,1.04012,    0,238.6033, 0.0000, 0.0500, 0.0000, 0.0000, 1.0000, 1,100.0000,101.3683,  0.0000,1,1.0000,   0,   1.0,   0,   1.0,   0,   1.0, 1, 1.0000
   2094,'1 ',  0.0000,  0.0000, 31.9500,-21.6000,1.00000,    0,12.0000, 0.0000, 0.0500, 0.0000, 0.0000, 1.0000, 0,100.0000,15.0000,  0.0000,1,1.0000,   0,   1.0,   0,   1.0,   0,   1.0, 1, 1.0000
   2095,'1 ',  0.0000,  0.0000,253.9500,-171.7500,1.00000,    0,95.4000, 0.0000, 0.0500, 0.0000, 0.0000, 1.0000, 0,100.0000,119.2500,  0.0000,1,1.0000,   0,   1.0,   0,   1.0,   0,   1.0, 1, 1.0000
   2099,'1 ',  7.5000, -1.4400, 31.9500,-21.6000,1.08604,    0,35.2824, 0.0000, 0.0500, 0.0000, 0.0000, 1.0000, 1,100.0000,14.9681,  0.0000,1,1.0000,   0,   1.0,   0,   1.0,   0,   1.0, 1, 1.0000
   2100,'1 ',112.5000,-21.6000,479.2500,-324.0000,1.07787,    0,529.2359, 0.0000, 0.0500, 0.0000, 0.0000, 1.0000, 1,100.0000,224.5219,  0.0000,1,1.0000,   0,   1.0,   0,   1.0,   0,   1.0, 1, 1.0000
   2103,'1 ',  0.0000,  0.0000,136.2800,-29.7200,1.00000,    0,321.2800, 0.0000, 0.0500, 0.0000, 0.0000, 1.0000, 0,100.0000,267.7300, 80.3200,  1,1.0000
   2104,'1 ',  0.0000,  0.0000,136.2800,-29.7200,1.00000,    0,321.2800, 0.0000, 0.0500, 0.0000, 0.0000, 1.0000, 0,100.0000,267.7300, 80.3200,  1,1.0000
   2105,'1 ',  0.0000,  0.0000,136.2800,-29.7200,1.00000,    0,321.2800, 0.0000, 0.0500, 0.0000, 0.0000, 1.0000, 0,100.0000,267.7300, 80.3200,  1,1.0000
   2115,'1 ',184.7200, 15.2042, 94.0200,-20.5000,1.09171,    0,221.6600, 0.0000, 0.0500, 0.0000, 0.0000, 1.0000, 1,100.0000,184.7200, 55.4100,  1,1.0000
   2116,'1 ',184.7200, 17.5554, 94.0200,-20.5000,1.09015,    0,221.6600, 0.0000, 0.0500, 0.0000, 0.0000, 1.0000, 1,100.0000,184.7200, 55.4100,  1,1.0000
   2117,'1 ',184.7200, 20.2371, 94.0200,-20.5000,1.09336,    0,221.6600, 0.0000, 0.0500, 0.0000, 0.0000, 1.0000, 1,100.0000,184.7200, 55.4100,  1,1.0000
   2118,'1 ',184.7200, 19.1768, 94.0200,-20.5000,1.09353,    0,221.6600, 0.0000, 0.0500, 0.0000, 0.0000, 1.0000, 1,100.0000,184.7200, 55.4100,  1,1.0000
   2119,'1 ',184.7200, 16.3859, 94.0200,-20.5000,1.09045,    0,221.6600, 0.0000, 0.0500, 0.0000, 0.0000, 1.0000, 1,100.0000,184.7200, 55.4100,  1,1.0000
   2120,'1 ',184.7200, 18.1943, 94.0200,-20.5000,1.09312,    0,221.6600, 0.0000, 0.0500, 0.0000, 0.0000, 1.0000, 1,100.0000,184.7200, 55.4100,  1,1.0000
   2123,'1 ',136.2800,-26.1600,580.5000,-392.4000,1.09226,    0,641.2985, 0.0000, 0.0500, 0.0000, 0.0000, 1.0000, 1,100.0000,272.5500,  0.0000,1,1.0000,   0,   1.0,   0,   1.0,   0,   1.0, 1, 1.0000
   2127,'1 ',216.4500,-41.5600,922.0500,-623.4000,1.09959,    0,1018.6160, 0.0000, 0.0500, 0.0000, 0.0000, 1.0000, 1,100.0000,432.9000,  0.0000,1,1.0000,   0,   1.0,   0,   1.0,   0,   1.0, 1, 1.0000
   3004,'1 ', 28.1300, -5.3999,119.8500,-81.0000,1.07343,    0,132.3937, 0.0000, 0.0500, 0.0000, 0.0000, 1.0000, 1,100.0000,56.2500,  0.0000,1,1.0000,   0,   1.0,   0,   1.0,   0,   1.0, 1, 1.0000
   3017,'1 ',127.1300,-24.4100,541.5000,-366.1500,1.04354,    0,598.1577, 0.0000, 0.0500, 0.0000, 0.0000, 1.0000, 1,100.0000,254.1070,  0.0000,1,1.0000,   0,   1.0,   0,   1.0,   0,   1.0, 1, 1.0000
   3020,'1 ',112.5000,-21.6000,479.2500,-324.0000,1.06508,    0,529.4389, 0.0000, 0.0500, 0.0000, 0.0000, 1.0000, 1,100.0000,225.0000,  0.0000,1,1.0000,   0,   1.0,   0,   1.0,   0,   1.0, 1, 1.0000
   3028,'1 ',150.0000,-28.8000,639.0000,-432.0000,1.05940,    0,705.9186, 0.0000, 0.0500, 0.0000, 0.0000, 1.0000, 1,100.0000,300.0000,  0.0000,1,1.0000,   0,   1.0,   0,   1.0,   0,   1.0, 1, 1.0000
   3034,'1 ', 97.8700, 10.4350,417.0000,-281.8500,1.10000,    0,460.4361, 0.0000, 0.0500, 0.0000, 0.0000, 1.0000, 1,100.0000,195.2239,  0.0000,1,1.0000,   0,   1.0,   0,   1.0,   0,   1.0, 1, 1.0000
   3039,'1 ',156.7500, 16.4838,667.8000,-451.5000,1.08158,    0,737.7256, 0.0000, 0.0500, 0.0000, 0.0000, 1.0000, 1,100.0000,313.5000,  0.0000,1,1.0000,   0,   1.0,   0,   1.0,   0,   1.0, 1, 1.0000
   3043,'1 ',  0.0000,  0.0000,  0.6600, -0.1400,1.04000,    0, 1.5600, 0.0000, 0.0500, 0.0000, 0.0000, 1.0000, 0,100.0000, 1.3000,  0.3900,  1,1.0000
   3044,'1 ',  0.0000,  0.0000, 45.5000, -9.9200,1.04000,    0,107.2800, 0.0000, 0.0500, 0.0000, 0.0000, 1.0000, 0,100.0000,89.4000, 26.8200,  1,1.0000
   3045,'1 ',  0.0000,  0.0000,227.5200,-49.6200,1.04000,    0,536.4000, 0.0000, 0.0500, 0.0000, 0.0000, 1.0000, 0,100.0000,447.0000,134.1000,  1,1.0000
   3048,'1 ',180.7500,-34.6999,769.9500,-520.5000,1.08180,    0,850.5911, 0.0000, 0.0500, 0.0000, 0.0000, 1.0000, 1,100.0000,361.5000,  0.0000,1,1.0000,   0,   1.0,   0,   1.0,   0,   1.0, 1, 1.0000
   3055,'1 ',183.8800,-30.9813,783.3000,-529.5000,1.05775,    0,865.3045, 0.0000, 0.0500, 0.0000, 0.0000, 1.0000, 1,100.0000,367.6860,  0.0000,1,1.0000,   0,   1.0,   0,   1.0,   0,   1.0, 1, 1.0000
   3056,'1 ',183.8800, -9.5628,783.3000,-529.5000,1.05879,    0,865.3045, 0.0000, 0.0500, 0.0000, 0.0000, 1.0000, 1,100.0000,367.6860,  0.0000,1,1.0000,   0,   1.0,   0,   1.0,   0,   1.0, 1, 1.0000
   3057,'1 ',183.8800, -1.0980,783.3000,-529.5000,1.06446,    0,865.3045, 0.0000, 0.0500, 0.0000, 0.0000, 1.0000, 1,100.0000,367.6860,  0.0000,1,1.0000,   0,   1.0,   0,   1.0,   0,   1.0, 1, 1.0000
   3060,'1 ',124.2200,-23.8500,529.2000,-357.7500,1.02927,    0,584.6108, 0.0000, 0.0500, 0.0000, 0.0000, 1.0000, 1,100.0000,248.4295,  0.0000,1,1.0000,   0,   1.0,   0,   1.0,   0,   1.0, 1, 1.0000
   3061,'1 ',124.2200,-23.8500,529.2000,-357.7500,1.04067,    0,584.6174, 0.0000, 0.0500, 0.0000, 0.0000, 1.0000, 1,100.0000,248.4450,  0.0000,1,1.0000,   0,   1.0,   0,   1.0,   0,   1.0, 1, 1.0000
   3062,'1 ',124.2200,-23.8500,529.2000,-357.7500,1.05315,    0,584.6108, 0.0000, 0.0500, 0.0000, 0.0000, 1.0000, 1,100.0000,248.4295,  0.0000,1,1.0000,   0,   1.0,   0,   1.0,   0,   1.0, 1, 1.0000
   3063,'1 ',124.2200,-23.8500,529.2000,-357.7500,1.04852,    0,584.6108, 0.0000, 0.0500, 0.0000, 0.0000, 1.0000, 1,100.0000,248.4295,  0.0000,1,1.0000,   0,   1.0,   0,   1.0,   0,   1.0, 1, 1.0000
   3065,'1 ', 60.3700,-11.5900,257.2500,-173.8500,1.06652,    0,284.1797, 0.0000, 0.0500, 0.0000, 0.0000, 1.0000, 1,100.0000,120.7500,  0.0000,1,1.0000,   0,   1.0,   0,   1.0,   0,   1.0, 1, 1.0000
   3068,'1 ',112.5000,  6.0020,479.2500,-324.0000,1.08664,    0,519.6104, 0.0000, 0.0500, 0.0000, 0.0000, 1.0000, 1,100.0000,200.7844,  0.0000,1,1.0000,   0,   1.0,   0,   1.0,   0,   1.0, 1, 1.0000
   3071,'1 ',127.6500,  5.9048,543.7500,-367.6500,1.08326,    0,600.7014, 0.0000, 0.0500, 0.0000, 0.0000, 1.0000, 1,100.0000,255.3000,  0.0000,1,1.0000,   0,   1.0,   0,   1.0,   0,   1.0, 1, 1.0000
   3074,'1 ', 74.8500,-14.3700,318.9000,-215.5500,1.06123,    0,352.2887, 0.0000, 0.0500, 0.0000, 0.0000, 1.0000, 1,100.0000,149.7000,  0.0000,1,1.0000,   0,   1.0,   0,   1.0,   0,   1.0, 1, 1.0000
   3081,'1 ',186.7500, 19.5890,795.6000,-537.9000,1.08360,    0,878.9093, 0.0000, 0.0500, 0.0000, 0.0000, 1.0000, 1,100.0000,373.5000,  0.0000,1,1.0000,   0,   1.0,   0,   1.0,   0,   1.0, 1, 1.0000
   3084,'1 ',174.3700, 34.2282,742.8000,-502.2000,1.09139,    0,820.5964, 0.0000, 0.0500, 0.0000, 0.0000, 1.0000, 1,100.0000,348.7500,  0.0000,1,1.0000,   0,   1.0,   0,   1.0,   0,   1.0, 1, 1.0000
   3086,'1 ', 56.2500,  8.5097,239.5500,-162.0000,1.09442,    0,264.6516, 0.0000, 0.0500, 0.0000, 0.0000, 1.0000, 1,100.0000,112.5000,  0.0000,1,1.0000,   0,   1.0,   0,   1.0,   0,   1.0, 1, 1.0000
   3087,'1 ',  0.0000,  0.0000,239.5500,-162.0000,1.00000,    0,90.0000, 0.0000, 0.0500, 0.0000, 0.0000, 1.0000, 0,100.0000,112.5000,  0.0000,1,1.0000,   0,   1.0,   0,   1.0,   0,   1.0, 1, 1.0000
   3092,'1 ',150.0000,-28.8000,639.0000,-432.0000,1.04582,    0,705.9186, 0.0000, 0.0500, 0.0000, 0.0000, 1.0000, 1,100.0000,300.0000,  0.0000,1,1.0000,   0,   1.0,   0,   1.0,   0,   1.0, 1, 1.0000
   3095,'1 ', 90.4500, 24.1062,385.3500,-260.5500,1.10000,    0,425.6988, 0.0000, 0.0500, 0.0000, 0.0000, 1.0000, 1,100.0000,180.9000,  0.0000,1,1.0000,   0,   1.0,   0,   1.0,   0,   1.0, 1, 1.0000
   3098,'1 ',120.0000,-23.0400,511.2000,-345.6000,1.03131,    0,564.7348, 0.0000, 0.0500, 0.0000, 0.0000, 1.0000, 1,100.0000,240.0000,  0.0000,1,1.0000,   0,   1.0,   0,   1.0,   0,   1.0, 1, 1.0000
   3105,'1 ', 44.5000, -0.7400, 17.0700, -0.7400,1.07159,    0,47.6617, 0.0000, 0.0500, 0.0000, 0.0000, 1.0000, 1,100.0000,44.5000, 44.5000,  1,1.0000
   3106,'1 ', 53.0200, -2.6900, 62.4800, -2.6900,1.06546,    0,81.9443, 0.0000, 0.0500, 0.0000, 0.0000, 1.0000, 1,100.0000,53.0200, 53.0200,  1,1.0000
   3110,'1 ', 63.0000,-12.1000,268.3500,-181.5000,1.03165,    0,296.4553, 0.0000, 0.0500, 0.0000, 0.0000, 1.0000, 1,100.0000,125.9921,  0.0000,1,1.0000,   0,   1.0,   0,   1.0,   0,   1.0, 1, 1.0000
   3112,'1 ', 56.1000,  1.1386,238.9500,-161.5500,1.06557,    0,263.9810, 0.0000, 0.0500, 0.0000, 0.0000, 1.0000, 1,100.0000,112.2000,  0.0000,1,1.0000,   0,   1.0,   0,   1.0,   0,   1.0, 1, 1.0000
   3113,'1 ', 56.1000, -0.8902,238.9500,-161.5500,1.05894,    0,263.9452, 0.0000, 0.0500, 0.0000, 0.0000, 1.0000, 1,100.0000,112.1158,  0.0000,1,1.0000,   0,   1.0,   0,   1.0,   0,   1.0, 1, 1.0000
   3117,'1 ', 47.2500,  4.6071,201.3000,-136.0500,1.10000,    0,222.3779, 0.0000, 0.0500, 0.0000, 0.0000, 1.0000, 1,100.0000,94.5000,  0.0000,1,1.0000,   0,   1.0,   0,   1.0,   0,   1.0, 1, 1.0000
   3118,'1 ', 90.0000,  5.2674,383.4000,-259.2000,1.10000,    0,423.4317, 0.0000, 0.0500, 0.0000, 0.0000, 1.0000, 1,100.0000,179.7188,  0.0000,1,1.0000,   0,   1.0,   0,   1.0,   0,   1.0, 1, 1.0000
   3120,'1 ', 29.7000,  0.0000,  0.0000,  0.0000,1.09648,    0,47.5200, 0.0000, 0.0500, 0.0000, 0.0000, 1.0000, 1,100.0000,44.5500,  0.0000,1,1.0000,   0,   1.0,   0,   1.0,   0,   1.0, 1, 1.0000
   3122,'1 ',147.7500,  3.5485,629.4000,-425.5500,1.09428,    0,695.3162, 0.0000, 0.0500, 0.0000, 0.0000, 1.0000, 1,100.0000,295.5000,  0.0000,1,1.0000,   0,   1.0,   0,   1.0,   0,   1.0, 1, 1.0000
   3127,'1 ',101.2500,-13.3847,431.4000,-291.6000,1.08438,    0,476.5629, 0.0000, 0.0500, 0.0000, 0.0000, 1.0000, 1,100.0000,202.5000,  0.0000,1,1.0000,   0,   1.0,   0,   1.0,   0,   1.0, 1, 1.0000
   3129,'1 ', 94.8800,-18.2200,404.1000,-273.3000,1.10000,    0,446.4324, 0.0000, 0.0500, 0.0000, 0.0000, 1.0000, 1,100.0000,189.7500,  0.0000,1,1.0000,   0,   1.0,   0,   1.0,   0,   1.0, 1, 1.0000
   3131,'1 ', 85.5000, -9.2486,364.2000,-246.3000,1.07214,    0,402.3464, 0.0000, 0.0500, 0.0000, 0.0000, 1.0000, 1,100.0000,171.0000,  0.0000,1,1.0000,   0,   1.0,   0,   1.0,   0,   1.0, 1, 1.0000
   3133,'1 ',  0.0000,  0.0000, 26.1100, -5.6900,1.04000,    0,61.5600, 0.0000, 0.0500, 0.0000, 0.0000, 1.0000, 0,100.0000,51.3000, 15.3900,  1,1.0000
   3133,'2 ',  0.0000,  0.0000, 26.1100, -5.6900,1.04000,    0,61.5600, 0.0000, 0.0500, 0.0000, 0.0000, 1.0000, 0,100.0000,51.3000, 15.3900,  1,1.0000
...